---- qbsp / ericw-tools v0.18.1 ----
Input file: PlingusManor.map
Output file: PlingusManor.bsp

---- LoadMapFile ----
*** WARNING 06: No info_player_deathmatch entities in level
         4098 faces
          683 brushes
           23 entities
           19 unique texnames
          889 texinfo

Opened WAD: D:/QuakeDev/wads/prototype_1_3.wad
Processing hull 0...
---- Brush_LoadEntity ----
          683 brushes
          367 planes
---- CSGFaces ----
         4098 brushfaces
         2607 csgfaces
         2044 mergedfaces
---- SolidBSP ----
         2005 split nodes
          872 solid leafs
         1030 empty leafs
          104 water leafs
            0 detail leafs
            0 detail illusionary leafs
            0 detail fence leafs
            0 illusionary visblocker leafs
         4678 leaffaces
         4529 nodefaces
---- Portalize ----
         1134 vis leafs
         1134 vis clusters
         2842 vis portals
---- FillOutside ----
*** WARNING 10: Reached occupant at (-2352 -640 64), no filling performed.
Leak file written to PlingusManor.pts
---- MakeFaceEdges ----
---- GrowRegions ----
Processing hull 1...
*** WARNING 10: Reached occupant at (-2352 -640 64), no filling performed.
Processing hull 2...
*** WARNING 10: Reached occupant at (-2352 -640 64), no filling performed.
---- WriteBSPFile ----
Wrote PlingusManor.bsp
          692 planes            13840
         5254 vertexes          63048
         2005 nodes             48120
          587 texinfo           23480
         4529 faces             90580
         3064 clipnodes         24512
         1135 leafs             31780
         4678 marksurfaces       9356
        18222 surfedges         72888
        11699 edges             46796
           19 textures         191240
              lightdata             0
              visdata               0
              entdata            1414

0.373 seconds elapsed
Peak memory usage: 23839288 (22.7M)
