---- qbsp / ericw-tools v0.18.1 ----
Input file: PlingusManor.map
Output file: PlingusManor.bsp

---- LoadMapFile ----
         4744 faces
          791 brushes
           33 entities
           24 unique texnames
         1000 texinfo

Opened WAD: D:/QuakeDev/wads/prototype_1_3.wad
Processing hull 0...
---- Brush_LoadEntity ----
          789 brushes
          417 planes
---- CSGFaces ----
         4732 brushfaces
         3482 csgfaces
         2699 mergedfaces
---- SolidBSP ----
         3068 split nodes
         1259 solid leafs
         1622 empty leafs
          188 water leafs
            0 detail leafs
            0 detail illusionary leafs
            0 detail fence leafs
            0 illusionary visblocker leafs
         6392 leaffaces
         6089 nodefaces
---- Portalize ----
         1810 vis leafs
         1810 vis clusters
         4615 vis portals
---- FillOutside ----
*** WARNING 10: Reached occupant at (-2352 -640 64), no filling performed.
Leak file written to PlingusManor.pts
---- MakeFaceEdges ----
---- GrowRegions ----
Processing hull 1...
*** WARNING 10: Reached occupant at (-2352 -640 64), no filling performed.
Processing hull 2...
*** WARNING 10: Reached occupant at (-2352 -640 64), no filling performed.
---- WriteBSPFile ----
Wrote PlingusManor.bsp
          787 planes            15740
         6843 vertexes          82116
         3080 nodes             73920
          640 texinfo           25600
         6101 faces            122020
         4741 clipnodes         37928
         1823 leafs             51044
         6404 marksurfaces      12808
        24489 surfedges         97956
        15942 edges             63768
           24 textures         247220
              lightdata             0
              visdata               0
              entdata            2248

0.487 seconds elapsed
Peak memory usage: 31950332 (30.5M)
