---- qbsp / ericw-tools v0.18.1 ----
Input file: PlingusManor.map
Output file: PlingusManor.bsp

---- LoadMapFile ----
         4228 faces
          705 brushes
           33 entities
           24 unique texnames
          998 texinfo

Opened WAD: D:/QuakeDev/wads/prototype_1_3.wad
Processing hull 0...
---- Brush_LoadEntity ----
          703 brushes
          399 planes
---- CSGFaces ----
         4216 brushfaces
         3090 csgfaces
         2434 mergedfaces
---- SolidBSP ----
         2717 split nodes
         1120 solid leafs
         1431 empty leafs
          167 water leafs
            0 detail leafs
            0 detail illusionary leafs
            0 detail fence leafs
            0 illusionary visblocker leafs
         5835 leaffaces
         5543 nodefaces
---- Portalize ----
         1598 vis leafs
         1598 vis clusters
         4081 vis portals
---- FillOutside ----
*** WARNING 10: Reached occupant at (-2352 -640 64), no filling performed.
Leak file written to PlingusManor.pts
---- MakeFaceEdges ----
---- GrowRegions ----
Processing hull 1...
*** WARNING 10: Reached occupant at (-2352 -640 64), no filling performed.
Processing hull 2...
*** WARNING 10: Reached occupant at (-2352 -640 64), no filling performed.
---- WriteBSPFile ----
Wrote PlingusManor.bsp
          812 planes            16240
         6236 vertexes          74832
         2729 nodes             65496
          633 texinfo           25320
         5555 faces            111100
         4240 clipnodes         33920
         1611 leafs             45108
         5847 marksurfaces      11694
        22292 surfedges         89168
        14521 edges             58084
           24 textures         247220
              lightdata             0
              visdata               0
              entdata            2215

0.439 seconds elapsed
Peak memory usage: 28822450 (27.5M)
